9

O   -0.525329794  -0.050971084  -0.314516861
H   -0.942006633   0.747901631   0.011252816
H    0.403696525   0.059785981  -0.073568368
O    2.316633291   0.045500849   0.071858389
H    2.684616115  -0.526576554   0.749386716
C    2.781638362  -0.426129067  -1.190300721
H    2.350821267   0.224964624  -1.943414753
H    3.867602049  -0.375336206  -1.264612649
H    2.453295744  -1.445998564  -1.389381355