12

C          1.97349        1.90322        0.43230
H          2.47988        2.86467        0.39743
H          1.56295        1.75709        1.43018
H          1.14384        1.89371       -0.26920
C          2.88912        0.74829        0.11638
O          2.46493       -0.37163       -0.16870
N          4.21526        1.01001        0.17558
H          4.51327        1.92044        0.47327
C          5.19766       -0.03010       -0.04716
H          4.84111       -0.68104       -0.83934
H          6.13803        0.42342       -0.34567
H          5.35717       -0.63463        0.84492
