9

O   -0.786562022   0.045168441  -0.007189119
H    0.177706774   0.012695896  -0.006835389
C   -1.247990941  -1.290283536   0.001083621
H   -2.334277443  -1.258897100   0.000221200
H   -0.925965746  -1.849768096  -0.880445382
H   -0.927027831  -1.838462882   0.890076520
O    2.128883141  -0.051336604  -0.004740935
H    2.568087280   0.336815595  -0.764613617
H    2.566767435   0.351267675   0.748348597