12

C         -0.84932       -0.33950        2.49172
H          0.18434       -0.01105        2.41619
H         -0.88250       -1.34205        2.91270
H         -1.39080        0.31688        3.16843
C         -1.56403       -0.35332        1.15948
O         -2.74953       -0.65154        1.05676
N         -0.80165       -0.02735        0.08834
H          0.16119        0.24036        0.21871
C         -1.38535       -0.00235       -1.23414
H         -1.89162       -0.94280       -1.44010
H         -2.11997        0.79621       -1.33088
H         -0.59465        0.14957       -1.96313
