7

N          2.23829        0.25457        0.28252
H          2.64195        0.79449        1.03772
H          2.65629        0.62196       -0.56313
C          2.61059       -1.15661        0.43627
H          2.18430       -1.72764       -0.38510
H          3.68599       -1.34330        0.46206
H          2.17612       -1.54102        1.35611
