12

C         -0.72430       -0.70494        2.28387
H          0.33532       -0.62994        2.05318
H         -0.95170       -1.71199        2.62565
H         -0.96963       -0.02208        3.09377
C         -1.61494       -0.38743        1.10407
O         -2.83732       -0.41502        1.19413
N         -0.95342       -0.07640       -0.04082
H          0.05381       -0.07557       -0.03664
C         -1.65812        0.25009       -1.25855
H         -2.72037        0.17694       -1.04665
H         -1.43030        1.26296       -1.58809
H         -1.40563       -0.44434       -2.05858
