8

C         -1.06171        1.29714        0.29206
O         -0.35816        2.27046        0.53181
O         -0.58930        0.09492        0.00379
H          0.40444        0.12772        0.01841
C         -2.55843        1.34255        0.29626
H         -2.89600        2.34746        0.51832
H         -2.93289        1.02239       -0.67300
H         -2.93721        0.64491        1.03956
