12

C          0.71265        1.12100        0.06054
H          1.35784        1.98640        0.12774
C          1.25824       -0.15925        0.12423
H          2.32495       -0.28710        0.24674
C          0.42688       -1.27453        0.04265
H          0.85044       -2.26843        0.09475
C         -0.94958       -1.11007       -0.10031
H         -1.59446       -1.97627       -0.16371
C         -1.49553        0.17105       -0.16155
H         -2.56378        0.29922       -0.27370
C         -0.66383        1.28664       -0.08340
H         -1.08690        2.28100       -0.13289
