11

N         -0.53372       -1.51586        3.84414
C         -1.46620       -0.55523        3.91799
H         -2.46899       -0.88619        4.16019
C         -1.20420        0.79584        3.70862
H         -2.00276        1.52034        3.78689
C          0.09523        1.18508        3.39835
H          0.33721        2.22408        3.22248
C          1.07479        0.20218        3.31499
H          2.09709        0.44893        3.06655
C          0.71231       -1.12296        3.54818
H          1.45617       -1.90851        3.49173
