12

N         -1.35546       -0.83605        0.73462
H         -1.03037       -1.38252        1.52336
C         -1.28754       -1.45383       -0.52065
O         -0.89912       -2.60738       -0.62598
N         -1.98998        1.21691       -0.09807
H         -1.70585       -0.98714       -2.61200
C         -2.00430        0.70087       -1.36440
H         -2.27608        1.39476       -2.14565
C         -1.69307       -0.58824       -1.61249
H         -2.10801        2.20522        0.05683
C         -1.62450        0.48891        1.01872
O         -1.53968        0.97552        2.12981
