12

N          1.37690        0.83975        0.73462
H          1.05181        1.38622        1.52336
C          1.30898        1.45753       -0.52065
O          0.92056        2.61108       -0.62598
N          2.01142       -1.21321       -0.09807
H          1.72729        0.99084       -2.61200
C          2.02574       -0.69717       -1.36440
H          2.29752       -1.39106       -2.14565
C          1.71451        0.59194       -1.61249
H          2.12945       -2.20152        0.05683
C          1.64595       -0.48521        1.01872
O          1.56112       -0.97182        2.12981
