12

N         -0.05087       -0.98008        0.03396
H         -0.05322       -1.99069        0.04982
C         -1.30881       -0.36188        0.00403
O         -2.32722       -1.03255       -0.00583
C         -1.23682        1.08805       -0.01222
H         -2.15274        1.65146       -0.05477
C         -0.03519        1.69784        0.03370
H          0.07037        2.77248        0.03188
N          1.13453        0.99028        0.09184
H          2.02372        1.45677        0.15569
C          1.19319       -0.39183        0.11578
O          2.23640       -1.01119        0.19419
