17

C         -2.53038       -0.41758        0.68131
H         -2.55989       -0.98279       -0.25016
H         -2.55404       -1.13386        1.50266
H         -3.43621        0.18414        0.73677
C         -1.27616        0.44363        0.75002
H         -1.27808        1.02522        1.67509
H         -1.28034        1.16856       -0.06716
C          0.00220       -0.38072        0.67899
H          0.00783       -1.11141        1.49383
H          0.00625       -0.96052       -0.24882
C          1.26833        0.46240        0.74937
H          1.26202        1.04425        1.67425
H          1.26163        1.18706       -0.06803
C          2.53497       -0.38042        0.68069
H          2.57244       -0.94572       -0.25045
H          3.43198        0.23441        0.73558
H          2.56921       -1.09581        1.50246
