15

C          0.95688       -0.89185        1.14195
H          1.50457       -1.27836        0.28342
H          1.42138       -1.31478        2.03103
C          0.99095        0.65851        1.14550
H          1.51059        1.02310        0.25995
H          1.51626        1.05982        2.01054
C         -0.47945        1.10232        1.10388
H         -0.61627        2.06488        0.61357
H         -0.87474        1.18907        2.11807
C         -1.18211       -0.05280        0.39335
H         -0.94888       -0.02683       -0.67380
H         -2.26566       -0.03356        0.50127
C         -0.53066       -1.27489        1.03931
H         -0.69039       -2.19702        0.48299
H         -0.95085       -1.41541        2.03675
