12

C          0.76555        0.86824        0.82099
H          1.43748        1.68001        1.06510
C          1.23765       -0.44284        0.79389
H          2.27576       -0.64854        1.01771
C          0.37224       -1.48854        0.47727
H          0.73819       -2.50608        0.45706
C         -0.96493       -1.22297        0.18688
H         -1.63646       -2.03456       -0.05777
C         -1.43707        0.08841        0.21328
H         -2.47468        0.29430       -0.01147
C         -0.57191        1.13402        0.53081
H         -0.93770        2.15171        0.55108
