17

C          1.14141        2.35703        4.05708
H          0.71056        2.66808        3.10430
H          0.50718        2.76246        4.84533
H          2.12429        2.81748        4.15020
C          1.21443        0.83816        4.14660
H          1.64481        0.54860        5.10789
H          1.88902        0.44700        3.38148
C         -0.15036        0.17999        3.99178
H         -0.82160        0.54887        4.77340
H         -0.59783        0.49026        3.04188
C         -0.09407       -1.34069        4.05142
H          0.32954       -1.64312        5.01205
H          0.59745       -1.70257        3.28691
C         -1.46335       -1.98257        3.86764
H         -1.90173       -1.70911        2.90746
H         -1.40641       -3.06933        3.91170
H         -2.15131       -1.65422        4.64687
