12

N          0.19573       -0.84469        0.82385
H          0.45040       -1.79675        1.04977
C         -1.17905       -0.57368        0.75948
O         -1.99365       -1.45627        0.96690
C         -1.47671        0.81116        0.43756
H         -2.50636        1.11565        0.36389
C         -0.46811        1.68296        0.23489
H         -0.63844        2.72164       -0.00616
N          0.84563        1.30599        0.32683
H          1.58969        1.96888        0.18596
C          1.25426        0.01946        0.63624
O          2.42230       -0.30172        0.73188
