12

C          0.83661        1.11486        0.23101
H          1.48545        1.97968        0.21470
C          1.38419       -0.16697        0.26006
H          2.45768       -0.29629        0.26606
C          0.54748       -1.28185        0.28693
H          0.97192       -2.27598        0.31388
C         -0.83667       -1.11500        0.28456
H         -1.48555       -1.97957        0.30970
C         -1.38416        0.16685        0.25561
H         -2.45764        0.29646        0.25854
C         -0.54750        1.28175        0.22898
H         -0.97214        2.27600        0.21116
