8

C         -0.11986        0.53439        4.36008
O         -0.58804        1.58384        3.98082
O          0.28336       -0.44317        3.52080
H          0.11465       -0.11726        2.61939
C          0.09010        0.13740        5.79149
H         -0.21987        0.94674        6.44148
H         -0.48598       -0.75922        6.00844
H          1.13860       -0.09873        5.95651
