11

N         -0.94121        0.79004        0.01172
C         -0.92276       -0.55238        0.03538
H          0.05724       -1.01559        0.05135
C         -2.07652       -1.33302        0.03929
H         -1.99653       -2.41059        0.05888
C         -3.31631       -0.70334        0.01760
H         -4.23157       -1.27908        0.01979
C         -3.34890        0.68702       -0.00709
H         -4.28544        1.22610       -0.02466
C         -2.14310        1.38263       -0.00889
H         -2.13810        2.46565       -0.02778
