9

C          0.04216        0.20124        4.11651
O          0.06907        1.38632        3.82467
N          1.17474       -0.55064        4.21933
H          2.04568       -0.12806        3.95067
H          1.13580       -1.54252        4.35075
C         -1.24806       -0.53770        4.38096
H         -1.10081       -1.49842        4.86809
H         -1.75429       -0.69600        3.43015
H         -1.88600        0.08954        4.99623
