12

C          2.19771       -2.24540       -0.23031
H          2.84767       -3.10652       -0.36323
H          1.51673       -2.16793       -1.07418
H          1.58469       -2.38420        0.65670
C          2.95244       -0.94739       -0.09772
O          2.37572        0.12790        0.05887
N          4.30307       -1.04489       -0.16234
H          4.70402       -1.95543       -0.29185
C          5.17131        0.10708       -0.05289
H          4.53482        0.97538        0.08189
H          5.83690        0.01562        0.80320
H          5.76578        0.23650       -0.95515
