15

O   -0.392018453  -0.384718737   0.076071325
H   -0.911460851   0.413812040   0.177648774
H    0.524903820  -0.068484694   0.090511364
C    2.197705212  -2.245403490  -0.230313251
H    2.847668055  -3.106515367  -0.363228638
H    1.516729242  -2.167931431  -1.074178526
H    1.584688314  -2.384199477   0.656695112
C    2.952437290  -0.947390613  -0.097719744
O    2.375721843   0.127904243   0.058868998
N    4.303070413  -1.044893297  -0.162337713
H    4.704022041  -1.955427276  -0.291852811
C    5.171312525   0.107077163  -0.052894631
H    4.534818395   0.975377606   0.081889976
H    5.836902032   0.015621965   0.803198250
H    5.765778248   0.236497652  -0.955153818