7

N         -0.89345       -0.04384       -0.04300
H          0.09695       -0.25606       -0.07107
H         -1.36844       -0.93339        0.03384
C         -1.17578        0.75791        1.14524
H         -2.24163        0.97222        1.19502
H         -0.88079        0.30425        2.09721
H         -0.66301        1.71433        1.06081
