9

C         -1.30975        1.18018       -0.02517
O         -0.72530        2.15515        0.45271
N         -0.66562        0.09505       -0.49199
H          0.35458        0.05145       -0.45931
H         -1.18363       -0.67360       -0.87076
C         -2.81672        1.15600       -0.11061
H         -3.22063        1.26254        0.89308
H         -3.20943        0.24863       -0.56190
H         -3.14316        2.01660       -0.68889
