8

C         -1.11363        1.32702        0.27517
O         -0.46708        2.34939        0.46154
O         -0.57809        0.13692        0.04962
H          0.41332        0.20326        0.05549
C         -2.61142        1.28619        0.27736
H         -3.00665        2.27689        0.46579
H         -2.96426        0.91526       -0.68200
H         -2.95311        0.59180        1.04124
