11

N          1.57248        0.25455       -0.25648
C          0.96936       -0.90316        0.04453
H          1.61364       -1.77218        0.10235
C         -0.39816       -1.02882        0.28096
H         -0.81842       -1.99174        0.53356
C         -1.19581        0.10656        0.19540
H         -2.26069        0.04954        0.37344
C         -0.58713        1.31741       -0.12011
H         -1.16181        2.22950       -0.20046
C          0.78855        1.33971       -0.33224
H          1.28843        2.26879       -0.57853
