12

N         -0.27488        0.67159        3.21865
H         -0.64819        1.57335        2.95575
C          1.11727        0.59860        3.35066
O          1.80818        1.59302        3.20582
C          1.59617       -0.73548        3.66877
H          2.65322       -0.88769        3.80289
C          0.71646       -1.74986        3.79499
H          1.02238       -2.75828        4.03151
N         -0.62879       -1.56483        3.62489
H         -1.27754       -2.32739        3.72376
C         -1.20324       -0.34003        3.32548
O         -2.40103       -0.18920        3.18337
