12

C          0.82577        1.23652       -0.04025
H          1.52101        2.06313       -0.08247
C          1.30016       -0.06294        0.12726
H          2.36366       -0.24226        0.20767
C          0.40352       -1.12855        0.19824
H          0.77375       -2.13743        0.32412
C         -0.96781       -0.89519        0.10314
H         -1.66521       -1.71998        0.16043
C         -1.44351        0.40448       -0.06244
H         -2.50751        0.58550       -0.12415
C         -0.54576        1.46877       -0.13625
H         -0.91422        2.47742       -0.26786
