17

C         -2.53331       -0.29488        0.71315
H         -2.56363       -0.97708       -0.13642
H         -2.56698       -0.89588        1.62173
H         -3.43443        0.31596        0.68410
C         -1.27188        0.55766        0.67435
H         -1.27103        1.25657        1.51432
H         -1.26663        1.16790       -0.23183
C         -0.00014       -0.27842        0.71960
H         -0.00016       -0.88723        1.62864
H         -0.00037       -0.98071       -0.11940
C          1.27189        0.55738        0.67406
H          1.27097        1.25663        1.51371
H          1.26664        1.16718       -0.23239
C          2.53340       -0.29494        0.71328
H          2.56392       -0.97777       -0.13578
H          3.43431        0.31625        0.68360
H          2.56756       -0.89521        1.62233
