17

C          0.38252       -0.07061        0.76690
C         -1.04064        0.39681        1.06094
H         -1.77157       -0.28150        0.61833
H         -1.22472        0.43574        2.13552
H         -1.21407        1.39372        0.65309
C          0.59085       -1.46682        1.34798
H          1.60291       -1.82295        1.15010
H          0.43897       -1.46675        2.42829
H         -0.10992       -2.17868        0.90931
C          1.37827        0.89844        1.39915
H          2.40439        0.58544        1.20073
H          1.24378        0.94597        2.48071
H          1.24837        1.90502        0.99895
C          0.60196       -0.11103       -0.74310
H          0.45921        0.87704       -1.18290
H          1.61369       -0.44346       -0.97967
H         -0.09953       -0.79755       -1.21922
