12

N         -0.20890       -0.96458        0.53476
H         -0.22415       -1.97311        0.60508
C         -1.44634       -0.34458        0.30666
O         -2.46124       -1.01079        0.19789
C         -1.35778        1.10319        0.22814
H         -2.25657        1.66773        0.04985
C         -0.16300        1.70989        0.38113
H         -0.04629        2.78245        0.33335
N          0.98545        1.00082        0.61121
H          1.86756        1.46693        0.74478
C          1.02702       -0.37917        0.71265
O          2.04920       -0.99740        0.93726
