17

C         -0.62370       -0.02972        4.73189
C         -1.94045        0.71157        4.94676
H         -2.64752        0.09336        5.50162
H         -1.78095        1.63176        5.51095
H         -2.39816        0.97307        3.99161
C         -0.00827       -0.38316        6.08317
H          0.93490       -0.91553        5.95238
H          0.18876        0.51659        6.66797
H         -0.67956       -1.02089        6.65990
C          0.34142        0.86376        3.95610
H          1.28999        0.35117        3.78575
H          0.54671        1.78190        4.50953
H         -0.08097        1.14225        2.98864
C         -0.88502       -1.30975        3.94152
H         -1.34876       -1.08792        2.97890
H          0.04756       -1.84815        3.76189
H         -1.55553       -1.97157        4.49171
