17

C         -2.53040       -0.34746        4.21851
H         -2.53877       -1.00941        3.35210
H         -2.58232       -0.97373        5.10910
H         -3.43282        0.26145        4.18575
C         -1.26987        0.50714        4.22958
H         -1.28652        1.18014        5.08999
H         -1.24460        1.14136        3.34079
C          0.00005       -0.33119        4.27004
H          0.00005       -0.94898        5.17310
H          0.00011       -1.01949        3.42080
C          1.26995        0.50719        4.22967
H          1.28657        1.18016        5.09009
H          1.24480        1.14136        3.34087
C          2.53047       -0.34745        4.21872
H          2.53885       -1.00943        3.35234
H          3.43285        0.26148        4.18600
H          2.58229       -0.97366        5.10936
