12

C          0.84508        1.05792        0.69945
H          1.50641        1.90322        0.83338
C          1.37551       -0.21746        0.51116
H          2.44718       -0.36147        0.50285
C          0.52407       -1.30704        0.33319
H          0.93573       -2.29603        0.18492
C         -0.85772       -1.12146        0.34638
H         -1.51838       -1.96646        0.20836
C         -1.38805        0.15363        0.53761
H         -2.45972        0.29742        0.55003
C         -0.53661        1.24342        0.71274
H         -0.94892        2.23281        0.85737
