9

C          0.08193        0.49753        4.80473
O          0.32842        1.54096        4.21749
N         -0.22212       -0.65748        4.15356
H         -0.19692       -0.66449        3.14692
H         -0.37789       -1.51297        4.64926
C          0.10477        0.40264        6.31315
H          1.13649        0.48685        6.64822
H         -0.31713       -0.52400        6.69417
H         -0.44469        1.24649        6.71992
