8

C         -0.48356       -0.28786        4.12125
O         -0.90618       -1.40304        3.92410
O         -1.29725        0.77110        4.35384
H         -2.19802        0.41672        4.31331
C          0.95671        0.12180        4.13846
H          1.58253       -0.74838        3.98030
H          1.13274        0.85608        3.35533
H          1.19402        0.59110        5.09026
