8

C          0.41899       -0.27168        4.02498
O          1.61448       -0.10773        4.10149
O         -0.16051       -1.48308        4.22442
H          0.57394       -2.08419        4.41745
C         -0.60290        0.77225        3.70430
H         -0.12460        1.74320        3.65747
H         -1.05570        0.53906        2.74159
H         -1.38775        0.76672        4.45680
