12

O          1.46633       -1.01217        0.00000
C          0.62815       -1.91427        0.00000
N         -0.72051       -1.68827        0.00000
C         -1.63673       -2.70528        0.00000
C         -1.27690       -4.00618        0.00000
C          0.12860       -4.36215        0.00000
N          0.97772       -3.23964        0.00000
O          0.59722       -5.48641        0.00000
H         -2.01035       -4.79386        0.00000
H         -1.02325       -0.70618        0.00000
H          1.97003       -3.43239        0.00000
H         -2.66906       -2.38834        0.00000
