15

N          0.93502       -0.02798       -0.37889
C          1.67396       -0.03578        0.74243
C          3.07480       -0.00945        0.59946
C          3.56461        0.01954       -0.70599
N          2.85315        0.02580       -1.84096
C          1.54908        0.00126       -1.58080
N          4.08858       -0.00544        1.52898
C          5.18299        0.02540        0.78722
N          4.92949        0.04124       -0.55673
N          1.07162       -0.07654        1.93914
H          0.87944        0.00503       -2.43157
H          6.18826        0.03755        1.17388
H          5.60354        0.06488       -1.30368
H          0.05869       -0.04238        2.00392
H          1.64438       -0.03474        2.76192
