12

C         -1.04783       -1.42167        0.00000
C         -1.45450       -0.85545        1.20620
C         -1.45450       -0.85545       -1.20620
C         -2.26680        0.27716        1.20695
C         -2.67148        0.84502        0.00000
C         -2.26680        0.27716       -1.20695
H         -1.13385       -1.29206       -2.14231
H         -2.58249        0.71631       -2.14380
H         -3.30304        1.72327        0.00000
H         -2.58249        0.71631        2.14380
H         -1.13385       -1.29206        2.14231
H         -0.40603       -2.29190        0.00000
