12

C         -0.02107        1.53186       -1.36393
C         -1.27468        0.97410       -1.60741
C         -1.37831       -0.22570       -2.30842
C         -0.22894       -0.86641       -2.76879
C          1.02479       -0.30352       -2.53124
C          1.12900        0.89668       -1.82998
H          0.06007        2.45656       -0.80940
H         -2.16510        1.46545       -1.24057
H         -2.35097       -0.66161       -2.49267
H         -0.31034       -1.79558       -3.31727
H          1.91658       -0.79408       -2.89939
H          2.10003        1.33268       -1.64004
