12

C         -0.73928        0.51588       -1.20711
C         -1.42614        0.39655        0.00000
C         -0.73928        0.51588        1.20711
C          0.63423        0.75464        1.20707
C          1.32104        0.87376        0.00000
C          0.63423        0.75464       -1.20707
H         -1.27195        0.42063       -2.14329
H         -2.49022        0.20524        0.00000
H         -1.27195        0.42063        2.14329
H          1.16680        0.84749        2.14370
H          2.38636        1.05963        0.00000
H          1.16680        0.84749       -2.14370
