12

C         -1.39406        0.00000       -2.45415
C         -0.69705        1.20724       -2.45463
C          0.69705        1.20724       -2.45463
C          1.39406        0.00000       -2.45415
C          0.69705       -1.20724       -2.45463
C         -0.69705       -1.20724       -2.45463
H         -2.47540        0.00000       -2.45032
H         -1.23823        2.14357       -2.45368
H          1.23823        2.14357       -2.45368
H          2.47540        0.00000       -2.45032
H          1.23823       -2.14357       -2.45368
H         -1.23823       -2.14357       -2.45368
