16

H          0.80652       -0.43589        0.00000
N         -0.14424       -0.76869        0.00000
C         -0.51611       -2.08932        0.00000
C         -1.88988       -2.18145        0.00000
C         -2.39323       -0.84708        0.00000
C         -1.26407        0.01959        0.00000
C         -1.38960        1.41177        0.00000
C         -2.67265        1.93664        0.00000
C         -3.80545        1.09748        0.00000
C         -3.67982       -0.28172        0.00000
H          0.23100       -2.86532        0.00000
H         -2.45858       -3.09561        0.00000
H         -0.51887        2.05395        0.00000
H         -2.80776        3.00979        0.00000
H         -4.79060        1.54394        0.00000
H         -4.55802       -0.91429        0.00000
