12

C          2.51190        1.62501        0.00000
C          2.71301        0.95785       -1.20829
C          3.11778       -0.37674       -1.20836
C          3.32138       -1.04373        0.00000
C          3.11778       -0.37674        1.20836
C          2.71301        0.95785        1.20829
H          2.20240        2.66114        0.00000
H          2.55118        1.47369       -2.14459
H          3.27030       -0.89514       -2.14484
H          3.63681       -2.07815        0.00000
H          3.27030       -0.89514        2.14484
H          2.55118        1.47369        2.14459
